%chk=test1.chk
%NProcShared=2
#n B3LYP/6-31G(d) Opt

 geomopt

0 1
C         -6.10756        3.14146        0.61034
C         -4.60563        1.87590       -0.25472
C         -4.07017        3.12948       -0.04339
C         -2.68000        3.59902       -0.37666
C         -0.23197        3.61726        0.12572
O         -0.08596        4.82157        0.26589
N         -1.47648        1.51007        0.32081
N         -5.88036        1.89264        0.16202
H         -7.05393        3.47820        1.01231
H         -6.55996        1.10069        0.13704
H         -4.11666        1.01461       -0.68953
H         -2.65836        4.69723       -0.20067
H         -2.48955        3.42560       -1.45808
H         -1.75528        3.19244        1.55808
H         -2.32570        1.05242        0.71640
H         -0.66453        1.13439        0.86329
N         -5.01663        3.92703        0.49204
C         -1.55546        2.96891        0.48561
O          0.79485        2.87778       -0.33959
H         -1.36683        1.25434       -0.68786

