%NProcShared=8
%Chk=butadiene.chk
#n RHF/STO-3G Opt

 butadiene

0 1
C         -4.10708        3.55103        0.00000
C         -2.79387        3.80602        0.00000
C         -1.79391        2.76742        0.00000
C         -0.48033        3.02155        0.00000
H         -4.82558        4.36470        0.00000
H         -4.50007        2.53939        0.00000
H         -2.45532        4.84006        0.00000
H         -2.13269        1.73343        0.00000
H         -0.08682        4.03300        0.00000
H          0.23764        2.20743        0.00000

